tutorials/results/result_AC_BuS_AC_busbar_2.json
{"solve_time":13.092631101608276,"optimizer":"Juniper","termination_status":"LOCALLY_SOLVED","dual_status":"NO_SOLUTION","primal_status":"FEASIBLE_POINT","objective":185.28918793981393,"solution":{"bus":{"4":{"va":-0.13700827457499942,"vm":1.0558849445443994},"1":{"va":2.023363732391018e-34,"vm":1.0999999962507245},"12":{"va":-0.128143073225356,"vm":1.0653889936570204},"2":{"va":-0.04984505909846663,"vm":1.0811235867138023},"6":{"va":-0.12814306300492276,"vm":1.0653889937135463},"11":{"va":-0.04984510957730398,"vm":1.081123586262456},"13":{"va":-0.049845059098466545,"vm":1.0811235867829587},"5":{"va":-0.10715159876193281,"vm":1.062558242406599},"7":{"va":-0.12814306300492287,"vm":1.0653889937135452},"8":{"va":-0.04984505909846675,"vm":1.0811235867137998},"10":{"va":-0.04984500862077428,"vm":1.0811235870960871},"9":{"va":-0.12814305278438176,"vm":1.0653889937700745},"3":{"va":-0.13139529857378998,"vm":1.0570162880174638}},"branch":{"4":{"qf":0.011526485683298398,"qt":-0.05563173563304672,"pt":-0.06651466593598997,"pf":0.06681256078048674},"1":{"qf":0.0010516458916442711,"qt":-0.022760590741794928,"pt":-0.9834474607624275,"pf":0.9999994278356472},"5":{"qf":-0.017341455408881067,"qt":0.01374504934493746,"pt":-0.5380664316270933,"pf":0.548356920742175},"2":{"qf":-0.005778118485342686,"qt":0.029693804855870174,"pt":-0.6155265434234911,"pf":0.642892467421049},"6":{"qf":-0.03741533724310424,"qt":0.016186855030895102,"pt":-0.1997060693767725,"pf":0.20007049680353695},"7":{"qf":-0.010555119397848376,"qt":-0.04162578550595103,"pt":0.1350849883411516,"pf":-0.13377926468723753},"3":{"qf":0.01582558982692788,"qt":-0.0604622662989284,"pt":-0.033052385440778896,"pf":0.033189074223043354}},"gen":{"1":{"qg":-0.004726472593698415,"pg":1.6428918952566962},"2":{"qg":0.027353122693791133,"pg":0.09999999207072142}},"multinetwork":false,"switch":{"4":{"status":1.0,"psw_to":0.5483569211067025,"qsw_to":-0.017341455476367708,"psw_fr":-0.5483569211067025,"qsw_fr":0.017341455476367708},"1":{"status":0.0,"psw_to":-3.645280493263534e-10,"qsw_to":6.748664283070055e-11,"psw_fr":3.645280493263534e-10,"qsw_fr":-6.748664283070055e-11},"12":{"status":1.0,"psw_to":-0.9834474603979002,"qsw_to":-0.02276059080928157,"psw_fr":0.9834474603979002,"qsw_fr":0.02276059080928157},"2":{"status":0.0,"psw_to":3.6452886728295877e-10,"qsw_to":-6.748664069828955e-11,"psw_fr":-3.6452886728295877e-10,"qsw_fr":6.748664069828955e-11},"6":{"status":1.0,"psw_to":0.2350897174615124,"qsw_to":-0.05989743006010947,"psw_fr":-0.2350897174615124,"qsw_fr":0.05989743006010947},"11":{"status":0.0,"psw_to":-3.645298924522937e-10,"qsw_to":6.748664243951322e-11,"psw_fr":3.645298924522937e-10,"qsw_fr":-6.748664243951322e-11},"13":{"status":0.0,"psw_to":-3.6452732981497994e-10,"qsw_to":6.74866443766009e-11,"psw_fr":3.6452732981497994e-10,"qsw_fr":-6.74866443766009e-11},"5":{"status":0.0,"psw_to":-3.6452753250690613e-10,"qsw_to":6.748664160135207e-11,"psw_fr":3.6452753250690613e-10,"qsw_fr":-6.748664160135207e-11},"15":{"status":1.0,"psw_to":0.0668117404089135,"qsw_to":0.011527009067593075,"psw_fr":-0.0668117404089135,"qsw_fr":-0.011527009067593075},"14":{"status":9.282919648720604e-9,"psw_to":8.203715732448948e-7,"qsw_to":-5.233842946765935e-7,"psw_fr":-8.203715732448948e-7,"qsw_fr":5.233842946765935e-7},"7":{"status":9.282943318532366e-9,"psw_to":-8.203740685158455e-7,"qsw_to":5.233943503196213e-7,"psw_fr":8.203740685158455e-7,"qsw_fr":-5.233943503196213e-7},"8":{"status":0.0,"psw_to":3.6452525182253213e-10,"qsw_to":-6.748664364178414e-11,"psw_fr":-3.6452525182253213e-10,"qsw_fr":6.748664364178414e-11},"10":{"status":1.0,"psw_to":0.20000000036452992,"qsw_to":0.09999999993251335,"psw_fr":-0.20000000036452992,"qsw_fr":-0.09999999993251335},"9":{"status":1.0,"psw_to":-0.09999999243524667,"qsw_to":-0.027353122626304488,"psw_fr":0.09999999243524667,"qsw_fr":0.027353122626304488},"3":{"status":1.0,"psw_to":0.03318907385851449,"qsw_to":0.015825589894414523,"psw_fr":-0.03318907385851449,"qsw_fr":-0.015825589894414523}},"baseMVA":100,"convdc":{"1":{"vmfilt":1.0795065728203068,"qpr_fr":-0.048747095869510884,"ppr_fr":0.2345853634760697,"qconv":-0.049239714727288726,"iconv":0.2219501876030937,"pgrid":0.23508889708744385,"qtf_to":0.0604004402771333,"phi":1.57079633750286,"vaconv":-0.0548078350122392,"pconv":0.23409274461829185,"ptf_to":-0.2345853634760697,"vmconv":1.0777882573990445,"vafilt":-0.052372616020883105,"pdc":-0.2226934857931287,"qgrid":-0.05989690666575915},"2":{"vmfilt":1.0578047018053558,"qpr_fr":-0.07068662555411541,"ppr_fr":-0.0015515000511599703,"qconv":-0.07073130139009273,"iconv":0.0668399850290129,"pgrid":-0.0014915679392669115,"qtf_to":0.08187613342573058,"phi":1.57079633750286,"vaconv":-0.13273114879831605,"pconv":-0.0015961758871373005,"ptf_to":0.0015515000511599703,"vmconv":1.0584878096559935,"vafilt":-0.13211369078764806,"pdc":0.012729001150559471,"qgrid":-0.08181620131383753},"3":{"vmfilt":1.0650918140322112,"qpr_fr":-0.061164928174026766,"ppr_fr":-0.19740842677228285,"qconv":-0.06154143082605485,"iconv":0.19403676250326427,"pgrid":-0.19701855671405827,"qtf_to":0.07250913389721102,"phi":1.57079633750286,"vaconv":-0.10484971241082108,"pconv":-0.19778492942431092,"ptf_to":0.19740842677228285,"vmconv":1.0675202899572414,"vafilt":-0.10604797694715005,"pdc":0.20913337258409154,"qgrid":-0.07211926383898644}},"per_unit":true,"multiinfrastructure":false,"load":{"4":{"pflex":0.6,"qflex":0.1,"pcurt":0.0},"1":{"pflex":0.2,"qflex":0.1,"pcurt":0.0},"2":{"pflex":0.45,"qflex":0.15,"pcurt":0.0},"3":{"pflex":0.4,"qflex":0.05,"pcurt":0.0}},"branchdc":{"1":{"pt":-0.09539627364073196,"pf":0.0955926266683566},"2":{"pt":-0.08251982343348321,"pf":0.08266727249017249},"3":{"pt":-0.12661354915060832,"pf":0.12710085912477212}},"busdc":{"1":{"vm":1.0999989436543784},"2":{"vm":1.0977394793996944},"3":{"vm":1.0957815020060784}}},"objective_lb":185.2891868844517}